data_STO-110.xyz_phase

_symmetry_space_group_name_H-M   'P 1'
_cell_length_a 9.762500
_cell_length_b 9.762500
_cell_length_c 3.905000
_cell_angle_alpha 90.000000
_cell_angle_beta 90.000000
_cell_angle_gamma 90.000000

loop_
    _atom_site_type_symbol
    _atom_site_fract_x
    _atom_site_fract_y
    _atom_site_fract_z
    _atom_site_occupancy
Sr 0.000000 0.400000 0.000000 1.000000
Sr 0.000000 0.400000 1.000000 1.000000
Sr 0.400000 0.000000 0.000000 1.000000
Sr 0.400000 0.000000 1.000000 1.000000
Sr 0.400000 0.400000 0.000000 1.000000
Sr 0.400000 0.400000 1.000000 1.000000
Sr 0.400000 0.800000 0.000000 1.000000
Sr 0.400000 0.800000 1.000000 1.000000
Sr 0.800000 0.400000 0.000000 1.000000
Sr 0.800000 0.400000 1.000000 1.000000
Sr 0.800000 0.800000 0.000000 1.000000
Sr 0.800000 0.800000 1.000000 1.000000
Ti 0.200000 0.200000 0.500000 1.000000
Ti 0.200000 0.600000 0.500000 1.000000
Ti 0.600000 0.200000 0.500000 1.000000
Ti 0.600000 0.600000 0.500000 1.000000
Ti 0.600000 1.000000 0.500000 1.000000
Ti 1.000000 0.600000 0.500000 1.000000
O 0.000000 0.200000 0.500000 1.000000
O 0.400000 0.200000 0.500000 1.000000
O 0.400000 0.600000 0.500000 1.000000
O 0.800000 0.600000 0.500000 1.000000
O 0.200000 0.000000 0.500000 1.000000
O 0.200000 0.400000 0.500000 1.000000
O 0.600000 0.400000 0.500000 1.000000
O 0.600000 0.800000 0.500000 1.000000
O 0.200000 0.200000 0.000000 1.000000
O 0.200000 0.200000 1.000000 1.000000
O 0.200000 0.600000 0.000000 1.000000
O 0.200000 0.600000 1.000000 1.000000
O 0.600000 0.200000 0.000000 1.000000
O 0.600000 0.200000 1.000000 1.000000
O 0.600000 0.600000 0.000000 1.000000
O 0.600000 0.600000 1.000000 1.000000
O 0.600000 1.000000 0.000000 1.000000
O 0.600000 1.000000 1.000000 1.000000
O 1.000000 0.600000 0.000000 1.000000
O 1.000000 0.600000 1.000000 1.000000
