data_STO-110-Surf-O.xyz_phase

_symmetry_space_group_name_H-M   'P 1'
_cell_length_a 27.612520
_cell_length_b 5.522504
_cell_length_c 3.905000
_cell_angle_alpha 90.000000
_cell_angle_beta 90.000000
_cell_angle_gamma 90.000000

loop_
_symmetry_equiv_pos_as_xyz
    'x, y, z'

loop_
    _atom_site_label
    _atom_site_fract_x
    _atom_site_fract_y
    _atom_site_fract_z
    _atom_site_occupancy
    _atom_site_type_symbol
Sr 0.000000 0.500000 0.000000 1.000000 Sr
Sr 0.200000 0.500000 0.000000 1.000000 Sr
Sr 0.900000 0.000000 0.000000 1.000000 Sr
Sr 0.800000 0.500000 0.000000 1.000000 Sr
Ti 0.000000 0.000000 0.500000 1.000000 Ti
Ti 0.200000 0.000000 0.500000 1.000000 Ti
Ti 0.900000 0.500000 0.500000 1.000000 Ti
Ti 0.800000 0.000000 0.500000 1.000000 Ti
O 0.000000 0.500000 0.500000 1.000000 O
O 0.200000 0.500000 0.500000 1.000000 O
O 0.050000 0.250000 0.000000 1.000000 O
O 0.150000 0.750000 0.000000 1.000000 O
O 0.250000 0.250000 0.000000 1.000000 O
O 0.050000 0.750000 0.000000 1.000000 O
O 0.150000 0.250000 0.000000 1.000000 O
O 0.250000 0.750000 0.000000 1.000000 O
O 0.900000 0.000000 0.500000 1.000000 O
O 0.800000 0.500000 0.500000 1.000000 O
O 0.950000 0.750000 0.000000 1.000000 O
O 0.850000 0.250000 0.000000 1.000000 O
O 0.750000 0.750000 0.000000 1.000000 O
O 0.950000 0.250000 0.000000 1.000000 O
O 0.850000 0.750000 0.000000 1.000000 O
O 0.750000 0.250000 0.000000 1.000000 O
